Circuit: * C:\Users\KevinMBP\Documents\GitHub\altdes19\pedalbox\Draft1.asc

Fatal Error: Unknown subcircuit called in:
   xu1 n002 n001 +16v -16v output
